Version 4
SHEET 1 880 680
WIRE 208 96 208 64
WIRE 208 96 96 96
WIRE 320 96 208 96
WIRE 96 128 96 96
WIRE 320 144 320 96
WIRE 48 160 16 160
WIRE 48 176 16 176
WIRE 288 176 176 176
WIRE 448 176 368 176
WIRE 96 256 96 224
WIRE 208 256 96 256
WIRE 320 256 320 224
WIRE 320 256 208 256
WIRE 208 288 208 256
FLAG 16 160 A
IOPIN 16 160 In
FLAG 16 176 B
IOPIN 16 176 In
FLAG 208 64 Vdd
IOPIN 208 64 In
FLAG 208 288 Gnd
IOPIN 208 288 In
FLAG 448 176 Out
IOPIN 448 176 Out
SYMBOL NAND 128 208 R0
SYMATTR InstName X1
SYMBOL NOT 352 208 R0
SYMATTR InstName X2
