Version 4
SHEET 1 880 680
WIRE 96 -48 -48 -48
WIRE 256 -16 192 -16
WIRE 256 0 256 -16
WIRE 0 112 -192 112
WIRE 192 112 192 -16
WIRE 96 128 96 -48
WIRE 128 128 96 128
WIRE 528 144 272 144
WIRE 0 160 0 112
WIRE 128 160 0 160
WIRE 416 176 272 176
WIRE 128 192 16 192
WIRE 416 256 416 240
WIRE 192 272 192 208
FLAG 256 80 0
FLAG -192 192 0
FLAG 16 272 0
FLAG 192 272 0
FLAG 416 256 0
FLAG 528 208 0
FLAG -48 32 0
SYMBOL Full_Adder 224 160 R0
SYMATTR InstName X1
SYMBOL voltage 256 -16 R0
WINDOW 123 0 0 Left 2
WINDOW 39 0 0 Left 2
WINDOW 0 0 2 Left 2
SYMATTR InstName V1
SYMATTR Value 2.5
SYMBOL voltage -48 -64 R0
WINDOW 3 -349 96 Left 2
WINDOW 123 0 0 Left 2
WINDOW 39 0 0 Left 2
WINDOW 0 19 2 Left 2
SYMATTR Value PULSE(0 2.5 0 1p 1p 5u 10u)
SYMATTR InstName V2
SYMBOL voltage -192 96 R0
WINDOW 3 -370 35 Left 2
WINDOW 123 0 0 Left 2
WINDOW 39 0 0 Left 2
WINDOW 0 15 2 Left 2
SYMATTR Value PULSE(0 2.5 0 1p 1p 2.5u 5u)
SYMATTR InstName V3
SYMBOL voltage 16 176 R0
WINDOW 3 -410 53 Left 2
WINDOW 123 0 0 Left 2
WINDOW 39 0 0 Left 2
WINDOW 0 14 2 Left 2
SYMATTR Value PULSE(0 2.5 0 1p 1p 1.25u 2.5u)
SYMATTR InstName V4
SYMBOL cap 400 176 R0
SYMATTR InstName C1
SYMATTR Value 15f
SYMBOL cap 512 144 R0
SYMATTR InstName C2
SYMATTR Value 15f
TEXT 264 208 Left 2 !.tran 20u
