Version 4
SHEET 1 1020 680
WIRE 112 0 -16 0
WIRE 480 0 112 0
WIRE 768 0 480 0
WIRE -16 16 -16 0
WIRE 112 128 112 0
WIRE 480 128 480 0
WIRE 80 144 48 144
WIRE 448 144 144 144
WIRE 848 144 512 144
WIRE 80 176 48 176
WIRE 224 176 144 176
WIRE 448 176 416 176
WIRE 608 176 512 176
WIRE 112 240 112 192
WIRE 480 240 480 192
WIRE 768 368 768 0
WIRE 608 400 608 176
WIRE 720 400 608 400
WIRE 896 400 816 400
WIRE 224 416 224 176
WIRE 720 416 224 416
WIRE 768 512 768 432
FLAG 48 144 A
IOPIN 48 144 In
FLAG 48 176 B
IOPIN 48 176 In
FLAG 416 176 Cin
IOPIN 416 176 In
FLAG -16 16 Vdd
IOPIN -16 16 In
FLAG 112 240 Gnd
IOPIN 112 240 In
FLAG 480 240 Gnd
IOPIN 480 240 In
FLAG 768 512 Gnd
IOPIN 768 512 In
FLAG 848 144 Sum
IOPIN 848 144 Out
FLAG 896 400 Carry
IOPIN 896 400 Out
SYMBOL Half_Adder 144 176 R0
SYMATTR InstName X1
SYMBOL Half_Adder 512 176 R0
SYMATTR InstName X2
SYMBOL OR 768 432 R0
SYMATTR InstName X3
