Version 4
SHEET 1 1124 744
WIRE -112 0 -320 0
WIRE 384 0 384 -96
WIRE 384 0 -112 0
WIRE 672 0 384 0
WIRE 1008 0 672 0
WIRE -112 96 -112 0
WIRE 384 96 384 0
WIRE -144 128 -240 128
WIRE -16 128 -64 128
WIRE 336 128 224 128
WIRE 336 144 288 144
WIRE 528 144 464 144
WIRE 672 176 672 0
WIRE -112 192 -112 176
WIRE -112 192 -416 192
WIRE 384 192 -112 192
WIRE 528 208 528 144
WIRE 624 208 528 208
WIRE 624 224 528 224
WIRE 832 224 752 224
WIRE -320 272 -320 0
WIRE -144 272 -320 272
WIRE 384 272 -144 272
WIRE -144 304 -144 272
WIRE 384 304 384 272
WIRE -176 336 -240 336
WIRE -16 336 -96 336
WIRE 336 336 288 336
WIRE 336 352 224 352
WIRE 528 352 528 224
WIRE 528 352 464 352
WIRE -416 480 -416 192
WIRE -144 480 -144 384
WIRE -144 480 -416 480
WIRE 384 480 384 400
WIRE 384 480 -144 480
WIRE 672 480 672 272
WIRE 672 480 384 480
WIRE 1008 544 1008 0
WIRE 1008 544 784 544
WIRE 784 592 784 544
WIRE 384 624 384 480
WIRE 384 624 304 624
WIRE 736 624 624 624
WIRE 736 640 672 640
WIRE 960 640 864 640
WIRE 384 688 384 624
WIRE 784 688 384 688
FLAG 384 -96 Vdd
IOPIN 384 -96 In
FLAG 304 624 Gnd
IOPIN 304 624 In
FLAG -240 128 A
IOPIN -240 128 In
FLAG -240 336 B
IOPIN -240 336 In
FLAG 288 144 B
IOPIN 288 144 In
FLAG 288 336 A
IOPIN 288 336 In
FLAG 624 624 A
IOPIN 624 624 In
FLAG 672 640 B
IOPIN 672 640 In
FLAG 832 224 Sum
IOPIN 832 224 Out
FLAG 960 640 Carry
IOPIN 960 640 Out
FLAG -16 128 A_bar
IOPIN -16 128 BiDir
FLAG 224 128 A_bar
IOPIN 224 128 BiDir
FLAG -16 336 B_bar
IOPIN -16 336 BiDir
FLAG 224 352 B_bar
IOPIN 224 352 BiDir
SYMBOL NAND 416 176 R0
SYMATTR InstName X3
SYMBOL NAND 416 384 R0
SYMATTR InstName X4
SYMBOL NAND 704 256 R0
SYMATTR InstName X5
SYMBOL AND 816 672 R0
SYMATTR InstName X6
SYMBOL NOT -80 160 R0
SYMATTR InstName X1
SYMBOL NOT -112 368 R0
SYMATTR InstName X2
