Version 4
SHEET 1 880 680
WIRE 144 32 144 0
WIRE 144 32 64 32
WIRE 224 32 144 32
WIRE 64 64 64 32
WIRE 96 64 64 64
WIRE 224 64 224 32
WIRE 224 64 192 64
WIRE 96 112 96 64
WIRE 96 112 64 112
WIRE 224 112 224 64
WIRE 224 112 192 112
WIRE 16 144 -32 144
WIRE 144 144 128 144
WIRE 64 176 64 160
WIRE 144 176 64 176
WIRE 192 176 192 160
WIRE 192 176 144 176
WIRE 272 176 192 176
WIRE 144 192 144 176
WIRE 192 240 144 240
WIRE 96 272 64 272
WIRE 192 336 192 240
WIRE 192 336 144 336
WIRE 96 368 64 368
WIRE 144 400 144 384
WIRE 160 400 144 400
WIRE 192 400 192 336
WIRE 192 400 160 400
WIRE 160 416 160 400
FLAG -32 144 A
IOPIN -32 144 In
FLAG 128 144 B
IOPIN 128 144 In
FLAG 64 272 A
IOPIN 64 272 In
FLAG 64 368 B
IOPIN 64 368 In
FLAG 160 416 Gnd
IOPIN 160 416 In
FLAG 144 0 Vdd
IOPIN 144 0 In
FLAG 272 176 Out
IOPIN 272 176 Out
SYMBOL cmosp 16 64 R0
SYMATTR InstName M1
SYMATTR Value2 l=180n w=800n
SYMBOL cmosn 96 192 R0
SYMATTR InstName M2
SYMATTR Value2 l=180n w=800n
SYMBOL cmosn 96 288 R0
SYMATTR InstName M3
SYMATTR Value2 l=180n w=800n
SYMBOL cmosp 144 64 R0
SYMATTR InstName M4
SYMATTR Value2 l=180n w=800n
TEXT -296 48 Left 2 !.INCLUDE tsmc018.lib
