Version 4
SHEET 1 880 680
WIRE 176 80 176 48
WIRE 176 80 80 80
WIRE 256 80 176 80
WIRE 80 128 80 80
WIRE 256 128 256 80
WIRE 32 160 -32 160
WIRE 224 160 128 160
WIRE 384 160 304 160
WIRE 32 176 -32 176
WIRE 80 240 80 192
WIRE 176 240 80 240
WIRE 256 240 256 208
WIRE 256 240 176 240
WIRE 176 272 176 240
FLAG -32 160 A
IOPIN -32 160 In
FLAG -32 176 B
IOPIN -32 176 In
FLAG 176 272 Gnd
IOPIN 176 272 In
FLAG 176 48 Vdd
IOPIN 176 48 In
FLAG 384 160 Out
IOPIN 384 160 Out
SYMBOL NOR 80 192 R0
SYMATTR InstName X1
SYMBOL NOT 288 192 R0
SYMATTR InstName X2
